Version 4
SHEET 1 880 680
WIRE 192 48 144 48
WIRE 320 48 192 48
WIRE 320 64 320 48
WIRE 192 96 192 48
WIRE 320 160 320 144
WIRE 192 208 192 176
WIRE 256 208 192 208
WIRE 192 240 192 208
WIRE 320 272 320 256
WIRE 192 368 192 320
WIRE 320 368 320 352
FLAG 192 368 0
FLAG 320 368 0
FLAG 64 48 0
DATAFLAG 320 272 ""
DATAFLAG 192 208 ""
SYMBOL res 176 80 R0
SYMATTR InstName Rb1
SYMATTR Value 2k
SYMBOL res 176 224 R0
SYMATTR InstName Rb2
SYMATTR Value 1k
SYMBOL res 304 48 R0
SYMATTR InstName R3
SYMATTR Value 300
SYMBOL res 304 256 R0
SYMATTR InstName R4
SYMATTR Value 160
SYMBOL npn 256 160 R0
SYMATTR InstName Q1
SYMATTR Value 2N2222
SYMBOL voltage 160 48 R90
WINDOW 0 -32 56 VBottom 2
WINDOW 3 32 56 VTop 2
SYMATTR InstName V1
SYMATTR Value 4.5
TEXT 64 352 Left 2 !.op
